
 ANSYS Academic Teaching Advanced                  


          *****  ANSYS COMMAND LINE ARGUMENTS  *****
  INITIAL JOBNAME              = file.job                                                                                                                                                                                                                                                
  DESIGNXPLORER REQUESTED
  START-UP FILE MODE           = READ  
  STOP FILE MODE               = READ  
  GRAPHICS DEVICE REQUESTED    = X11     
  GRAPHICAL ENTRY              = YES   
  LANGUAGE                     = en-us               
  INITIAL DIRECTORY = /home/.fkm/rbs/projects/stud/swes_ws15_16/assignment_4

 RELEASE=                      BUILD= 16.1      UP20150325   VERSION=LINUX x64   
 CURRENT JOBNAME=file.job  08:47:42  JAN 11, 2016 CP=      0.248


 /SHOW SET WITH DRIVER NAME= X11     ,  RASTER MODE,  GRAPHIC PLANES =  8

 RUN SETUP PROCEDURE FROM FILE= /ansys_inc/v161/ansys/apdl/start161.ans

 /INPUT FILE= menust.tmp  LINE=       0

 /INPUT FILE= /ansys_inc/v161/ansys/apdl/start161.ans  LINE=       0
 ACTIVATING THE GRAPHICAL USER INTERFACE (GUI).  PLEASE WAIT...
 ************************************************************
 ******************** NO SPACEBALL FOUND ********************
 ************************************************************

 CUTTING PLANE SET TO THE WORKING PLANE

 PRODUCE NODAL PLOT IN DSYS=  0
 TURN OFF WORKING PLANE DISPLAY

 EXIT ANSYS WITHOUT SAVING DATABASE


 NUMBER OF WARNING MESSAGES ENCOUNTERED=          0
 NUMBER OF ERROR   MESSAGES ENCOUNTERED=          0

 DATA INPUT WRITTEN ON /home/.fkm/rbs/projects/stud/swes_ws15_16/assignment_4/file.job.log                                                                                                                                                                                                 

+--------------------- A N S Y S   S T A T I S T I C S ------------------------+

Release:                    Build: 16.1       Update: UP20150325   Platform: LINUX x64   
Date Run: 01/11/2016   Time: 08:47

Processor Model: Intel(R) Core(TM) i7-4770 CPU @ 3.40GHz

Compiler: Intel(R) FORTRAN Compiler Version 14.0.0  (Build: 20140422)
          Intel(R) C/C++ Compiler Version 14.0.0  (Build: 20140422)
          Intel(R) Math Kernel Library Version 11.1.3 Product Build 20140917

Total number of cores available         :    8
Number of physical cores available      :    4
Number of processes requested           :    1
Number of threads per process requested :    2
Total number of cores requested         :    2 (Shared Memory Parallel)                    

GPU Acceleration: Not Requested

Job Name: file.job
Working Directory: /home/.fkm/rbs/projects/stud/swes_ws15_16/assignment_4

Total CPU time for main thread                    :        0.7 seconds
Total CPU time summed for all threads             :        0.7 seconds

Elapsed time spent pre-processing model (/PREP7)  :        0.0 seconds
Elapsed time spent solution - preprocessing       :        0.0 seconds
Elapsed time spent computing solution             :        0.0 seconds
Elapsed time spent solution - postprocessing      :        0.0 seconds
Elapsed time spent post-processing model (/POST1) :        0.0 seconds

Maximum total memory used                         :        2.0 MB
Maximum total memory allocated                    :     2112.0 MB
Maximum total memory available                    :         31 GB

+------------------ E N D   A N S Y S   S T A T I S T I C S -------------------+


 *---------------------------------------------------------------------------*
 |                                                                           |
 |                            ANSYS RUN COMPLETED                            |
 |                                                                           |
 |---------------------------------------------------------------------------|
 |                                                                           |
 | Ansys                       Build 16.1         UP20150325     LINUX x64   |
 |                                                                           |
 |---------------------------------------------------------------------------|
 |                                                                           |
 | Database Requested(-db)  1024 MB    Scratch Memory Requested      1024 MB |
 | Maximum Database Used       1 MB    Maximum Scratch Memory Used      1 MB |
 |                                                                           |
 |---------------------------------------------------------------------------|
 |                                                                           |
 |        CP Time      (sec) =          0.744       Time  =  08:47:50        |
 |        Elapsed Time (sec) =         10.000       Date  =  01/11/2016      |
 |                                                                           |
 *---------------------------------------------------------------------------*
